Version 4
SHEET 1 4112 860
WIRE 496 -144 240 -144
WIRE 320 64 320 -64
WIRE 320 112 320 64
WIRE 240 128 240 -144
WIRE 288 128 288 112
WIRE 288 128 240 128
WIRE 304 128 288 128
WIRE 432 144 352 144
WIRE 496 144 496 -144
WIRE 496 144 432 144
WIRE -160 160 -176 160
WIRE -128 160 -160 160
WIRE 144 160 -48 160
WIRE 288 160 144 160
WIRE 304 160 288 160
WIRE 496 160 496 144
WIRE 560 160 496 160
WIRE 592 160 560 160
WIRE 288 176 288 160
WIRE 144 192 144 160
WIRE 320 224 320 176
WIRE 144 272 144 256
WIRE 320 336 320 224
FLAG 320 -64 V+
FLAG 320 336 V-
FLAG 560 160 OUT
FLAG -160 160 IN
FLAG 144 272 REF
SYMBOL res -32 144 R90
WINDOW 0 0 56 VBottom 2
WINDOW 3 32 56 VTop 2
SYMATTR InstName R1
SYMATTR Value 28.7k
SYMBOL cap 128 192 R0
SYMATTR InstName C1
SYMATTR Value 470n
SYMBOL Opamps\\LT6004 320 144 R0
SYMATTR InstName U1
TEXT -176 504 Left 4 ;This subcircuit is not simulatable.  \nPlease open one of the \n"Filter Design*.asc" schematics to \nsimulate your Filter Wizard design.
